Version 4
SHEET 1 880 680
WIRE 560 0 160 0
WIRE 160 112 160 0
WIRE 208 112 160 112
WIRE 288 128 272 128
WIRE 480 128 432 128
WIRE 560 128 560 0
WIRE 560 128 480 128
WIRE 208 144 160 144
WIRE 480 144 480 128
WIRE 160 208 160 144
WIRE 192 208 160 208
WIRE 272 208 272 128
WIRE 160 240 160 208
WIRE 48 256 48 240
WIRE 48 256 16 256
WIRE 48 272 48 256
FLAG 480 224 0
FLAG 560 192 0
FLAG 160 320 0
FLAG 16 256 0
SYMBOL OpAmps\\OP07 240 64 R0
SYMATTR InstName U1
SYMBOL voltage 48 144 R0
WINDOW 123 0 0 Left 0
WINDOW 39 0 0 Left 0
SYMATTR InstName V1
SYMATTR Value 3.8
SYMBOL voltage 48 256 R0
WINDOW 123 0 0 Left 0
WINDOW 39 0 0 Left 0
SYMATTR InstName V2
SYMATTR Value 3.8
SYMBOL res 144 224 R0
SYMATTR InstName R1
SYMATTR Value 22k
SYMBOL res 288 192 R90
WINDOW 0 0 56 VBottom 2
WINDOW 3 32 56 VTop 2
SYMATTR InstName R2
SYMATTR Value 45k
SYMBOL res 384 112 R90
WINDOW 0 0 56 VBottom 2
WINDOW 3 32 56 VTop 2
SYMATTR InstName R3
SYMATTR Value 3k
SYMBOL cap 432 112 R90
WINDOW 0 0 32 VBottom 2
WINDOW 3 32 32 VTop 2
SYMATTR InstName C1
SYMATTR Value 1µ
SYMBOL res 464 128 R0
SYMATTR InstName R4
SYMATTR Value 3k
SYMBOL cap 544 128 R0
SYMATTR InstName C2
SYMATTR Value 1µ
TEXT 8 376 Left 2 !.tran 100m
